*SPEF "IEEE 1481-1998"
*DESIGN "polynomial_top"
*DATE "Wed Mar 12 15:44:59 2025"
*VENDOR "Cadence Design Systems, Inc."
*PROGRAM "Innovus"
*VERSION "21.17-s075_1"
*DESIGN_FLOW "COUPLING C" "PIN_CAP NONE" "NAME_SCOPE LOCAL"
*DIVIDER /
*DELIMITER :
*BUS_DELIMITER []
*T_UNIT 1 NS
*C_UNIT 1 PF
*R_UNIT 1 OHM
*L_UNIT 1 HENRY

// MMMC spef file for corner 'basic'

*NAME_MAP

*1 polynomialCore/FE_OFN56_N69
*2 polynomialCore/FE_OFN55_N61
*3 polynomialCore/FE_OFN54_N60
*4 polynomialCore/FE_OFN53_N60
*5 polynomialCore/FE_OFN52_N62
*6 polynomialCore/FE_OFN51_N62
*7 polynomialCore/FE_OFN50_N68
*8 polynomialCore/FE_OFN49_N68
*9 polynomialCore/FE_OFN48_N67
*10 polynomialCore/FE_OFN47_N67
*11 polynomialCore/mult_55/FE_OFN46_n39
*12 polynomialCore/mult_55/FE_OFN45_n39
*13 polynomialCore/mult_55/FE_OFN44_n38
*14 polynomialCore/FE_OFN43_N75
*15 polynomialCore/FE_OFN42_N75
*16 polynomialCore/FE_OFN41_N74
*17 polynomialCore/FE_OFN40_N74
*18 polynomialCore/FE_OFN39_y1_2
*19 polynomialCore/FE_OFN38_y1_2
*20 polynomialCore/FE_OFN37_y1_3
*21 polynomialCore/FE_OFN36_y1_3
*22 FE_OFN35_valid_out_top
*23 FE_OFN34_valid_out_top
*24 FE_OFN33_y_top_1
*25 FE_OFN32_y_top_1
*26 FE_OFN31_y_top_2
*27 FE_OFN30_y_top_2
*28 FE_OFN29_y_top_3
*29 FE_OFN28_y_top_3
*30 FE_OFN27_y_top_4
*31 FE_OFN26_y_top_4
*32 FE_OFN25_y_top_7
*33 FE_OFN24_y_top_7
*34 FE_OFN23_y_top_8
*35 FE_OFN22_y_top_8
*36 FE_OFN21_y_top_9
*37 FE_OFN20_y_top_9
*38 FE_OFN19_y_top_10
*39 FE_OFN18_y_top_10
*40 FE_OFN17_y_top_11
*41 FE_OFN16_y_top_11
*42 FE_OFN15_y_top_12
*43 FE_OFN14_y_top_12
*44 FE_OFN13_y_top_13
*45 FE_OFN12_y_top_13
*46 FE_OFN11_y_top_14
*47 FE_OFN10_y_top_14
*48 FE_OFN9_y_top_15
*49 FE_OFN8_y_top_15
*50 FE_OFN7_y_top_16
*51 FE_OFN6_y_top_16
*52 FE_OFN5_y_top_17
*53 FE_OFN4_y_top_17
*54 FE_OFN3_y_top_18
*55 FE_OFN2_y_top_18
*56 polynomialCore/FE_DBTN1_N2
*57 polynomialCore/FE_DBTN0_N3
*58 PAD_clock
*59 PAD_valid_in
*60 PAD_reset
*61 PAD_valid_out
*62 PAD_x\<5\>
*63 PAD_x\<4\>
*64 PAD_x\<3\>
*65 PAD_x\<2\>
*66 PAD_x\<1\>
*67 PAD_x\<0\>
*68 PAD_y\<23\>
*69 PAD_y\<22\>
*70 PAD_y\<21\>
*71 PAD_y\<20\>
*72 PAD_y\<19\>
*73 PAD_y\<18\>
*74 PAD_y\<17\>
*75 PAD_y\<16\>
*76 PAD_y\<15\>
*77 PAD_y\<14\>
*78 PAD_y\<13\>
*79 PAD_y\<12\>
*80 PAD_y\<11\>
*81 PAD_y\<10\>
*82 PAD_y\<9\>
*83 PAD_y\<8\>
*84 PAD_y\<7\>
*85 PAD_y\<6\>
*86 PAD_y\<5\>
*87 PAD_y\<4\>
*88 PAD_y\<3\>
*89 PAD_y\<2\>
*90 PAD_y\<1\>
*91 PAD_y\<0\>
*92 x_top\<5\>
*93 x_top\<4\>
*94 x_top\<3\>
*95 x_top\<2\>
*96 x_top\<1\>
*97 x_top\<0\>
*98 y_top\<18\>
*99 y_top\<17\>
*100 y_top\<16\>
*101 y_top\<15\>
*102 y_top\<14\>
*103 y_top\<13\>
*104 y_top\<12\>
*105 y_top\<11\>
*106 y_top\<10\>
*107 y_top\<9\>
*108 y_top\<8\>
*109 y_top\<7\>
*110 y_top\<6\>
*111 y_top\<5\>
*112 y_top\<4\>
*113 y_top\<3\>
*114 y_top\<2\>
*115 y_top\<1\>
*116 y_top\<0\>
*117 clock_top
*118 valid_in_top
*119 reset_top
*120 valid_out_top
*121 n1
*122 polynomialCore/x1\<5\>
*123 polynomialCore/x1\<4\>
*124 polynomialCore/x1\<3\>
*125 polynomialCore/x1\<2\>
*126 polynomialCore/x1\<1\>
*127 polynomialCore/y1\<18\>
*128 polynomialCore/y1\<17\>
*129 polynomialCore/y1\<16\>
*130 polynomialCore/y1\<15\>
*131 polynomialCore/y1\<14\>
*132 polynomialCore/y1\<13\>
*133 polynomialCore/y1\<12\>
*134 polynomialCore/y1\<11\>
*135 polynomialCore/y1\<10\>
*136 polynomialCore/y1\<9\>
*137 polynomialCore/y1\<8\>
*138 polynomialCore/y1\<7\>
*139 polynomialCore/y1\<6\>
*140 polynomialCore/y1\<5\>
*141 polynomialCore/y1\<4\>
*142 polynomialCore/y1\<3\>
*143 polynomialCore/y1\<2\>
*144 polynomialCore/y1\<1\>
*145 polynomialCore/valid1
*146 polynomialCore/N58
*147 polynomialCore/N60
*148 polynomialCore/N61
*149 polynomialCore/N62
*150 polynomialCore/N63
*151 polynomialCore/N64
*152 polynomialCore/N65
*153 polynomialCore/N67
*154 polynomialCore/N68
*155 polynomialCore/N69
*156 polynomialCore/N70
*157 polynomialCore/N71
*158 polynomialCore/N72
*159 polynomialCore/N73
*160 polynomialCore/N74
*161 polynomialCore/N75
*162 polynomialCore/N76
*163 polynomialCore/N77
*164 polynomialCore/N78
*165 polynomialCore/N79
*166 polynomialCore/N80
*167 polynomialCore/N81
*168 polynomialCore/N82
*169 polynomialCore/N83
*170 polynomialCore/N84
*171 polynomialCore/x_squared\<9\>
*172 polynomialCore/x_squared\<8\>
*173 polynomialCore/x_squared\<7\>
*174 polynomialCore/x_squared\<6\>
*175 polynomialCore/x_squared\<5\>
*176 polynomialCore/x_squared\<4\>
*177 polynomialCore/x_squared\<3\>
*178 polynomialCore/x_squared\<11\>
*179 polynomialCore/x_squared\<10\>
*180 polynomialCore/x_cubed\<9\>
*181 polynomialCore/x_cubed\<8\>
*182 polynomialCore/x_cubed\<7\>
*183 polynomialCore/x_cubed\<6\>
*184 polynomialCore/x_cubed\<5\>
*185 polynomialCore/x_cubed\<4\>
*186 polynomialCore/x_cubed\<3\>
*187 polynomialCore/x_cubed\<2\>
*188 polynomialCore/x_cubed\<1\>
*189 polynomialCore/x_cubed\<17\>
*190 polynomialCore/x_cubed\<16\>
*191 polynomialCore/x_cubed\<15\>
*192 polynomialCore/x_cubed\<14\>
*193 polynomialCore/x_cubed\<13\>
*194 polynomialCore/x_cubed\<12\>
*195 polynomialCore/x_cubed\<11\>
*196 polynomialCore/x_cubed\<10\>
*197 polynomialCore/N9
*198 polynomialCore/N8
*199 polynomialCore/N7
*200 polynomialCore/N6
*201 polynomialCore/N5
*202 polynomialCore/N44
*203 polynomialCore/N43
*204 polynomialCore/N42
*205 polynomialCore/N41
*206 polynomialCore/N40
*207 polynomialCore/N4
*208 polynomialCore/N39
*209 polynomialCore/N3
*210 polynomialCore/N2
*211 polynomialCore/N16
*212 polynomialCore/N14
*213 polynomialCore/N13
*214 polynomialCore/N12
*215 polynomialCore/N11
*216 polynomialCore/N10
*217 polynomialCore/add_1_root_add_0_root_add_56_3\/carry\<2\>
*218 polynomialCore/add_1_root_add_0_root_add_56_3\/carry\<3\>
*219 polynomialCore/add_1_root_add_0_root_add_56_3\/carry\<4\>
*220 polynomialCore/add_1_root_add_0_root_add_56_3\/carry\<5\>
*221 polynomialCore/add_1_root_add_0_root_add_56_3\/carry\<6\>
*222 polynomialCore/add_1_root_add_0_root_add_56_3\/carry\<7\>
*223 polynomialCore/add_1_root_add_0_root_add_56_3\/carry\<8\>
*224 polynomialCore/add_1_root_add_0_root_add_56_3\/carry\<9\>
*225 polynomialCore/add_1_root_add_0_root_add_56_3\/carry\<10\>
*226 polynomialCore/add_1_root_add_0_root_add_56_3\/carry\<11\>
*227 polynomialCore/add_1_root_add_0_root_add_56_3\/carry\<12\>
*228 polynomialCore/add_1_root_add_0_root_add_56_3\/carry\<13\>
*229 polynomialCore/add_1_root_add_0_root_add_56_3\/carry\<14\>
*230 polynomialCore/add_1_root_add_0_root_add_56_3\/carry\<15\>
*231 polynomialCore/add_1_root_add_0_root_add_56_3\/carry\<16\>
*232 polynomialCore/add_1_root_add_0_root_add_56_3\/SUM\<2\>
*233 polynomialCore/add_1_root_add_0_root_add_56_3\/SUM\<3\>
*234 polynomialCore/add_1_root_add_0_root_add_56_3\/SUM\<4\>
*235 polynomialCore/add_1_root_add_0_root_add_56_3\/SUM\<5\>
*236 polynomialCore/add_1_root_add_0_root_add_56_3\/SUM\<6\>
*237 polynomialCore/add_1_root_add_0_root_add_56_3\/SUM\<7\>
*238 polynomialCore/add_1_root_add_0_root_add_56_3\/SUM\<8\>
*239 polynomialCore/add_1_root_add_0_root_add_56_3\/SUM\<9\>
*240 polynomialCore/add_1_root_add_0_root_add_56_3\/SUM\<10\>
*241 polynomialCore/add_1_root_add_0_root_add_56_3\/SUM\<11\>
*242 polynomialCore/add_1_root_add_0_root_add_56_3\/SUM\<12\>
*243 polynomialCore/add_1_root_add_0_root_add_56_3\/SUM\<13\>
*244 polynomialCore/add_1_root_add_0_root_add_56_3\/SUM\<14\>
*245 polynomialCore/add_1_root_add_0_root_add_56_3\/SUM\<15\>
*246 polynomialCore/mult_56_2\/A2\<11\>
*247 polynomialCore/mult_56_2\/CARRYB\<3\]\[0\>
*248 polynomialCore/mult_56_2\/CARRYB\<4\]\[0\>
*249 polynomialCore/mult_56_2\/CARRYB\<5\]\[0\>
*250 polynomialCore/mult_56_2\/CARRYB\<6\]\[0\>
*251 polynomialCore/mult_56_2\/CARRYB\<7\]\[0\>
*252 polynomialCore/mult_56_2\/CARRYB\<8\]\[0\>
*253 polynomialCore/mult_56_2\/CARRYB\<9\]\[0\>
*254 polynomialCore/mult_56_2\/CARRYB\<10\]\[0\>
*255 polynomialCore/mult_56_2\/CARRYB\<11\]\[0\>
*256 polynomialCore/add_2_root_add_0_root_add_56_3\/carry\<6\>
*257 polynomialCore/add_2_root_add_0_root_add_56_3\/carry\<5\>
*258 polynomialCore/add_2_root_add_0_root_add_56_3\/carry\<4\>
*259 polynomialCore/add_2_root_add_0_root_add_56_3\/carry\<3\>
*260 polynomialCore/n1
*261 polynomialCore/n2
*262 polynomialCore/n3
*263 polynomialCore/n4
*264 polynomialCore/n5
*265 polynomialCore/n6
*266 polynomialCore/n7
*267 polynomialCore/mult_54/ab\<5\]\[3\>
*268 polynomialCore/mult_54/ab\<5\]\[0\>
*269 polynomialCore/mult_54/ab\<4\]\[5\>
*270 polynomialCore/mult_54/ab\<4\]\[3\>
*271 polynomialCore/mult_54/ab\<4\]\[2\>
*272 polynomialCore/mult_54/ab\<4\]\[1\>
*273 polynomialCore/mult_54/ab\<4\]\[0\>
*274 polynomialCore/mult_54/ab\<3\]\[5\>
*275 polynomialCore/mult_54/ab\<3\]\[4\>
*276 polynomialCore/mult_54/ab\<3\]\[2\>
*277 polynomialCore/mult_54/ab\<3\]\[1\>
*278 polynomialCore/mult_54/ab\<3\]\[0\>
*279 polynomialCore/mult_54/ab\<2\]\[5\>
*280 polynomialCore/mult_54/ab\<2\]\[4\>
*281 polynomialCore/mult_54/ab\<2\]\[3\>
*282 polynomialCore/mult_54/ab\<2\]\[1\>
*283 polynomialCore/mult_54/ab\<2\]\[0\>
*284 polynomialCore/mult_54/ab\<1\]\[5\>
*285 polynomialCore/mult_54/ab\<1\]\[4\>
*286 polynomialCore/mult_54/ab\<1\]\[3\>
*287 polynomialCore/mult_54/ab\<1\]\[2\>
*288 polynomialCore/mult_54/ab\<1\]\[0\>
*289 polynomialCore/mult_54/ab\<0\]\[5\>
*290 polynomialCore/mult_54/ab\<0\]\[4\>
*291 polynomialCore/mult_54/ab\<0\]\[3\>
*292 polynomialCore/mult_54/ab\<0\]\[2\>
*293 polynomialCore/mult_54/ab\<0\]\[1\>
*294 polynomialCore/mult_54/CARRYB\<5\]\[4\>
*295 polynomialCore/mult_54/CARRYB\<5\]\[3\>
*296 polynomialCore/mult_54/CARRYB\<5\]\[2\>
*297 polynomialCore/mult_54/CARRYB\<5\]\[1\>
*298 polynomialCore/mult_54/CARRYB\<5\]\[0\>
*299 polynomialCore/mult_54/CARRYB\<4\]\[4\>
*300 polynomialCore/mult_54/CARRYB\<4\]\[3\>
*301 polynomialCore/mult_54/CARRYB\<4\]\[2\>
*302 polynomialCore/mult_54/CARRYB\<4\]\[1\>
*303 polynomialCore/mult_54/CARRYB\<4\]\[0\>
*304 polynomialCore/mult_54/CARRYB\<3\]\[4\>
*305 polynomialCore/mult_54/CARRYB\<3\]\[3\>
*306 polynomialCore/mult_54/CARRYB\<3\]\[2\>
*307 polynomialCore/mult_54/CARRYB\<3\]\[1\>
*308 polynomialCore/mult_54/CARRYB\<3\]\[0\>
*309 polynomialCore/mult_54/CARRYB\<2\]\[4\>
*310 polynomialCore/mult_54/CARRYB\<2\]\[3\>
*311 polynomialCore/mult_54/CARRYB\<2\]\[2\>
*312 polynomialCore/mult_54/CARRYB\<2\]\[1\>
*313 polynomialCore/mult_54/CARRYB\<2\]\[0\>
*314 polynomialCore/mult_54/CARRYB\<1\]\[4\>
*315 polynomialCore/mult_54/CARRYB\<1\]\[3\>
*316 polynomialCore/mult_54/CARRYB\<1\]\[2\>
*317 polynomialCore/mult_54/CARRYB\<1\]\[1\>
*318 polynomialCore/mult_54/CARRYB\<1\]\[0\>
*319 polynomialCore/mult_54/SUMB\<5\]\[4\>
*320 polynomialCore/mult_54/SUMB\<5\]\[3\>
*321 polynomialCore/mult_54/SUMB\<5\]\[2\>
*322 polynomialCore/mult_54/SUMB\<5\]\[1\>
*323 polynomialCore/mult_54/SUMB\<4\]\[4\>
*324 polynomialCore/mult_54/SUMB\<4\]\[3\>
*325 polynomialCore/mult_54/SUMB\<4\]\[2\>
*326 polynomialCore/mult_54/SUMB\<4\]\[1\>
*327 polynomialCore/mult_54/SUMB\<3\]\[4\>
*328 polynomialCore/mult_54/SUMB\<3\]\[3\>
*329 polynomialCore/mult_54/SUMB\<3\]\[2\>
*330 polynomialCore/mult_54/SUMB\<3\]\[1\>
*331 polynomialCore/mult_54/SUMB\<2\]\[4\>
*332 polynomialCore/mult_54/SUMB\<2\]\[3\>
*333 polynomialCore/mult_54/SUMB\<2\]\[2\>
*334 polynomialCore/mult_54/SUMB\<2\]\[1\>
*335 polynomialCore/mult_54/SUMB\<1\]\[4\>
*336 polynomialCore/mult_54/SUMB\<1\]\[3\>
*337 polynomialCore/mult_54/SUMB\<1\]\[2\>
*338 polynomialCore/mult_54/SUMB\<1\]\[1\>
*339 polynomialCore/mult_54/A1\<8\>
*340 polynomialCore/mult_54/A1\<7\>
*341 polynomialCore/mult_54/A1\<6\>
*342 polynomialCore/mult_54/A1\<5\>
*343 polynomialCore/mult_54/A2\<9\>
*344 polynomialCore/mult_54/A2\<8\>
*345 polynomialCore/mult_54/A2\<7\>
*346 polynomialCore/mult_54/A2\<6\>
*347 polynomialCore/mult_54/A2\<5\>
*348 polynomialCore/mult_54/n2
*349 polynomialCore/mult_54/n3
*350 polynomialCore/mult_54/n4
*351 polynomialCore/mult_54/n5
*352 polynomialCore/mult_54/n6
*353 polynomialCore/mult_54/n7
*354 polynomialCore/mult_54/n8
*355 polynomialCore/mult_54/n9
*356 polynomialCore/mult_54/n10
*357 polynomialCore/mult_54/n11
*358 polynomialCore/mult_54/n12
*359 polynomialCore/mult_54/n13
*360 polynomialCore/mult_54/n14
*361 polynomialCore/mult_54/n15
*362 polynomialCore/mult_54/n16
*363 polynomialCore/mult_54/n17
*364 polynomialCore/mult_54/n18
*365 polynomialCore/mult_54/n19
*366 polynomialCore/mult_54/n20
*367 polynomialCore/mult_54/n21
*368 polynomialCore/mult_54/n22
*369 polynomialCore/mult_54/n23
*370 polynomialCore/mult_54/n24
*371 polynomialCore/mult_54/n25
*372 polynomialCore/mult_54/n26
*373 polynomialCore/mult_54/n27
*374 polynomialCore/mult_54/n28
*375 polynomialCore/mult_54/n29
*376 polynomialCore/mult_54/n30
*377 polynomialCore/mult_54/n31
*378 polynomialCore/mult_54/n32
*379 polynomialCore/mult_55/ab\<11\]\[5\>
*380 polynomialCore/mult_55/ab\<11\]\[4\>
*381 polynomialCore/mult_55/ab\<11\]\[3\>
*382 polynomialCore/mult_55/ab\<11\]\[2\>
*383 polynomialCore/mult_55/ab\<11\]\[1\>
*384 polynomialCore/mult_55/ab\<11\]\[0\>
*385 polynomialCore/mult_55/ab\<10\]\[5\>
*386 polynomialCore/mult_55/ab\<10\]\[4\>
*387 polynomialCore/mult_55/ab\<10\]\[3\>
*388 polynomialCore/mult_55/ab\<10\]\[2\>
*389 polynomialCore/mult_55/ab\<10\]\[1\>
*390 polynomialCore/mult_55/ab\<10\]\[0\>
*391 polynomialCore/mult_55/ab\<9\]\[5\>
*392 polynomialCore/mult_55/ab\<9\]\[4\>
*393 polynomialCore/mult_55/ab\<9\]\[3\>
*394 polynomialCore/mult_55/ab\<9\]\[2\>
*395 polynomialCore/mult_55/ab\<9\]\[1\>
*396 polynomialCore/mult_55/ab\<9\]\[0\>
*397 polynomialCore/mult_55/ab\<8\]\[5\>
*398 polynomialCore/mult_55/ab\<8\]\[4\>
*399 polynomialCore/mult_55/ab\<8\]\[3\>
*400 polynomialCore/mult_55/ab\<8\]\[2\>
*401 polynomialCore/mult_55/ab\<8\]\[1\>
*402 polynomialCore/mult_55/ab\<8\]\[0\>
*403 polynomialCore/mult_55/ab\<7\]\[5\>
*404 polynomialCore/mult_55/ab\<7\]\[4\>
*405 polynomialCore/mult_55/ab\<7\]\[3\>
*406 polynomialCore/mult_55/ab\<7\]\[2\>
*407 polynomialCore/mult_55/ab\<7\]\[1\>
*408 polynomialCore/mult_55/ab\<7\]\[0\>
*409 polynomialCore/mult_55/ab\<6\]\[5\>
*410 polynomialCore/mult_55/ab\<6\]\[4\>
*411 polynomialCore/mult_55/ab\<6\]\[3\>
*412 polynomialCore/mult_55/ab\<6\]\[2\>
*413 polynomialCore/mult_55/ab\<6\]\[1\>
*414 polynomialCore/mult_55/ab\<6\]\[0\>
*415 polynomialCore/mult_55/ab\<5\]\[5\>
*416 polynomialCore/mult_55/ab\<5\]\[4\>
*417 polynomialCore/mult_55/ab\<5\]\[3\>
*418 polynomialCore/mult_55/ab\<5\]\[2\>
*419 polynomialCore/mult_55/ab\<5\]\[1\>
*420 polynomialCore/mult_55/ab\<5\]\[0\>
*421 polynomialCore/mult_55/ab\<4\]\[5\>
*422 polynomialCore/mult_55/ab\<4\]\[4\>
*423 polynomialCore/mult_55/ab\<4\]\[3\>
*424 polynomialCore/mult_55/ab\<4\]\[2\>
*425 polynomialCore/mult_55/ab\<4\]\[1\>
*426 polynomialCore/mult_55/ab\<4\]\[0\>
*427 polynomialCore/mult_55/ab\<3\]\[5\>
*428 polynomialCore/mult_55/ab\<3\]\[4\>
*429 polynomialCore/mult_55/ab\<3\]\[3\>
*430 polynomialCore/mult_55/ab\<3\]\[2\>
*431 polynomialCore/mult_55/ab\<3\]\[1\>
*432 polynomialCore/mult_55/ab\<3\]\[0\>
*433 polynomialCore/mult_55/ab\<2\]\[5\>
*434 polynomialCore/mult_55/ab\<2\]\[4\>
*435 polynomialCore/mult_55/ab\<2\]\[3\>
*436 polynomialCore/mult_55/ab\<2\]\[2\>
*437 polynomialCore/mult_55/ab\<2\]\[1\>
*438 polynomialCore/mult_55/ab\<2\]\[0\>
*439 polynomialCore/mult_55/ab\<1\]\[5\>
*440 polynomialCore/mult_55/ab\<1\]\[4\>
*441 polynomialCore/mult_55/ab\<1\]\[3\>
*442 polynomialCore/mult_55/ab\<1\]\[2\>
*443 polynomialCore/mult_55/ab\<1\]\[1\>
*444 polynomialCore/mult_55/ab\<1\]\[0\>
*445 polynomialCore/mult_55/ab\<0\]\[5\>
*446 polynomialCore/mult_55/ab\<0\]\[4\>
*447 polynomialCore/mult_55/ab\<0\]\[3\>
*448 polynomialCore/mult_55/ab\<0\]\[2\>
*449 polynomialCore/mult_55/ab\<0\]\[1\>
*450 polynomialCore/mult_55/CARRYB\<11\]\[4\>
*451 polynomialCore/mult_55/CARRYB\<11\]\[3\>
*452 polynomialCore/mult_55/CARRYB\<11\]\[2\>
*453 polynomialCore/mult_55/CARRYB\<11\]\[1\>
*454 polynomialCore/mult_55/CARRYB\<11\]\[0\>
*455 polynomialCore/mult_55/CARRYB\<10\]\[4\>
*456 polynomialCore/mult_55/CARRYB\<10\]\[3\>
*457 polynomialCore/mult_55/CARRYB\<10\]\[2\>
*458 polynomialCore/mult_55/CARRYB\<10\]\[1\>
*459 polynomialCore/mult_55/CARRYB\<10\]\[0\>
*460 polynomialCore/mult_55/CARRYB\<9\]\[4\>
*461 polynomialCore/mult_55/CARRYB\<9\]\[3\>
*462 polynomialCore/mult_55/CARRYB\<9\]\[2\>
*463 polynomialCore/mult_55/CARRYB\<9\]\[1\>
*464 polynomialCore/mult_55/CARRYB\<9\]\[0\>
*465 polynomialCore/mult_55/CARRYB\<8\]\[4\>
*466 polynomialCore/mult_55/CARRYB\<8\]\[3\>
*467 polynomialCore/mult_55/CARRYB\<8\]\[2\>
*468 polynomialCore/mult_55/CARRYB\<8\]\[1\>
*469 polynomialCore/mult_55/CARRYB\<8\]\[0\>
*470 polynomialCore/mult_55/CARRYB\<7\]\[4\>
*471 polynomialCore/mult_55/CARRYB\<7\]\[3\>
*472 polynomialCore/mult_55/CARRYB\<7\]\[2\>
*473 polynomialCore/mult_55/CARRYB\<7\]\[1\>
*474 polynomialCore/mult_55/CARRYB\<7\]\[0\>
*475 polynomialCore/mult_55/CARRYB\<6\]\[4\>
*476 polynomialCore/mult_55/CARRYB\<6\]\[3\>
*477 polynomialCore/mult_55/CARRYB\<6\]\[2\>
*478 polynomialCore/mult_55/CARRYB\<6\]\[1\>
*479 polynomialCore/mult_55/CARRYB\<6\]\[0\>
*480 polynomialCore/mult_55/CARRYB\<5\]\[4\>
*481 polynomialCore/mult_55/CARRYB\<5\]\[3\>
*482 polynomialCore/mult_55/CARRYB\<5\]\[2\>
*483 polynomialCore/mult_55/CARRYB\<5\]\[1\>
*484 polynomialCore/mult_55/CARRYB\<5\]\[0\>
*485 polynomialCore/mult_55/CARRYB\<4\]\[4\>
*486 polynomialCore/mult_55/CARRYB\<4\]\[3\>
*487 polynomialCore/mult_55/CARRYB\<4\]\[2\>
*488 polynomialCore/mult_55/CARRYB\<4\]\[1\>
*489 polynomialCore/mult_55/CARRYB\<4\]\[0\>
*490 polynomialCore/mult_55/CARRYB\<3\]\[4\>
*491 polynomialCore/mult_55/CARRYB\<3\]\[3\>
*492 polynomialCore/mult_55/CARRYB\<3\]\[2\>
*493 polynomialCore/mult_55/CARRYB\<3\]\[1\>
*494 polynomialCore/mult_55/CARRYB\<3\]\[0\>
*495 polynomialCore/mult_55/CARRYB\<2\]\[4\>
*496 polynomialCore/mult_55/CARRYB\<2\]\[3\>
*497 polynomialCore/mult_55/CARRYB\<2\]\[2\>
*498 polynomialCore/mult_55/CARRYB\<2\]\[1\>
*499 polynomialCore/mult_55/CARRYB\<2\]\[0\>
*500 polynomialCore/mult_55/CARRYB\<1\]\[4\>
*501 polynomialCore/mult_55/CARRYB\<1\]\[3\>
*502 polynomialCore/mult_55/CARRYB\<1\]\[2\>
*503 polynomialCore/mult_55/CARRYB\<1\]\[1\>
*504 polynomialCore/mult_55/CARRYB\<1\]\[0\>
*505 polynomialCore/mult_55/SUMB\<11\]\[4\>
*506 polynomialCore/mult_55/SUMB\<11\]\[3\>
*507 polynomialCore/mult_55/SUMB\<11\]\[2\>
*508 polynomialCore/mult_55/SUMB\<11\]\[1\>
*509 polynomialCore/mult_55/SUMB\<10\]\[4\>
*510 polynomialCore/mult_55/SUMB\<10\]\[3\>
*511 polynomialCore/mult_55/SUMB\<10\]\[2\>
*512 polynomialCore/mult_55/SUMB\<10\]\[1\>
*513 polynomialCore/mult_55/SUMB\<9\]\[4\>
*514 polynomialCore/mult_55/SUMB\<9\]\[3\>
*515 polynomialCore/mult_55/SUMB\<9\]\[2\>
*516 polynomialCore/mult_55/SUMB\<9\]\[1\>
*517 polynomialCore/mult_55/SUMB\<8\]\[4\>
*518 polynomialCore/mult_55/SUMB\<8\]\[3\>
*519 polynomialCore/mult_55/SUMB\<8\]\[2\>
*520 polynomialCore/mult_55/SUMB\<8\]\[1\>
*521 polynomialCore/mult_55/SUMB\<7\]\[4\>
*522 polynomialCore/mult_55/SUMB\<7\]\[3\>
*523 polynomialCore/mult_55/SUMB\<7\]\[2\>
*524 polynomialCore/mult_55/SUMB\<7\]\[1\>
*525 polynomialCore/mult_55/SUMB\<6\]\[4\>
*526 polynomialCore/mult_55/SUMB\<6\]\[3\>
*527 polynomialCore/mult_55/SUMB\<6\]\[2\>
*528 polynomialCore/mult_55/SUMB\<6\]\[1\>
*529 polynomialCore/mult_55/SUMB\<5\]\[4\>
*530 polynomialCore/mult_55/SUMB\<5\]\[3\>
*531 polynomialCore/mult_55/SUMB\<5\]\[2\>
*532 polynomialCore/mult_55/SUMB\<5\]\[1\>
*533 polynomialCore/mult_55/SUMB\<4\]\[4\>
*534 polynomialCore/mult_55/SUMB\<4\]\[3\>
*535 polynomialCore/mult_55/SUMB\<4\]\[2\>
*536 polynomialCore/mult_55/SUMB\<4\]\[1\>
*537 polynomialCore/mult_55/SUMB\<3\]\[4\>
*538 polynomialCore/mult_55/SUMB\<3\]\[3\>
*539 polynomialCore/mult_55/SUMB\<3\]\[2\>
*540 polynomialCore/mult_55/SUMB\<3\]\[1\>
*541 polynomialCore/mult_55/SUMB\<2\]\[4\>
*542 polynomialCore/mult_55/SUMB\<2\]\[3\>
*543 polynomialCore/mult_55/SUMB\<2\]\[2\>
*544 polynomialCore/mult_55/SUMB\<2\]\[1\>
*545 polynomialCore/mult_55/SUMB\<1\]\[4\>
*546 polynomialCore/mult_55/SUMB\<1\]\[3\>
*547 polynomialCore/mult_55/SUMB\<1\]\[2\>
*548 polynomialCore/mult_55/SUMB\<1\]\[1\>
*549 polynomialCore/mult_55/A1\<14\>
*550 polynomialCore/mult_55/A1\<13\>
*551 polynomialCore/mult_55/A1\<12\>
*552 polynomialCore/mult_55/A1\<11\>
*553 polynomialCore/mult_55/A2\<15\>
*554 polynomialCore/mult_55/A2\<14\>
*555 polynomialCore/mult_55/A2\<13\>
*556 polynomialCore/mult_55/A2\<12\>
*557 polynomialCore/mult_55/A2\<11\>
*558 polynomialCore/mult_55/n2
*559 polynomialCore/mult_55/n3
*560 polynomialCore/mult_55/n4
*561 polynomialCore/mult_55/n5
*562 polynomialCore/mult_55/n6
*563 polynomialCore/mult_55/n7
*564 polynomialCore/mult_55/n8
*565 polynomialCore/mult_55/n9
*566 polynomialCore/mult_55/n10
*567 polynomialCore/mult_55/n11
*568 polynomialCore/mult_55/n12
*569 polynomialCore/mult_55/n13
*570 polynomialCore/mult_55/n14
*571 polynomialCore/mult_55/n15
*572 polynomialCore/mult_55/n16
*573 polynomialCore/mult_55/n17
*574 polynomialCore/mult_55/n18
*575 polynomialCore/mult_55/n19
*576 polynomialCore/mult_55/n20
*577 polynomialCore/mult_55/n21
*578 polynomialCore/mult_55/n22
*579 polynomialCore/mult_55/n23
*580 polynomialCore/mult_55/n24
*581 polynomialCore/mult_55/n25
*582 polynomialCore/mult_55/n26
*583 polynomialCore/mult_55/n27
*584 polynomialCore/mult_55/n28
*585 polynomialCore/mult_55/n29
*586 polynomialCore/mult_55/n30
*587 polynomialCore/mult_55/n31
*588 polynomialCore/mult_55/n32
*589 polynomialCore/mult_55/n33
*590 polynomialCore/mult_55/n34
*591 polynomialCore/mult_55/n35
*592 polynomialCore/mult_55/n37
*593 polynomialCore/mult_55/n38
*594 polynomialCore/mult_55/n39
*595 polynomialCore/mult_55/n40
*596 polynomialCore/mult_55/n41
*597 polynomialCore/add_0_root_add_0_root_add_56_3/carry\<17\>
*598 polynomialCore/add_0_root_add_0_root_add_56_3/carry\<16\>
*599 polynomialCore/add_0_root_add_0_root_add_56_3/carry\<15\>
*600 polynomialCore/add_0_root_add_0_root_add_56_3/carry\<14\>
*601 polynomialCore/add_0_root_add_0_root_add_56_3/carry\<13\>
*602 polynomialCore/add_0_root_add_0_root_add_56_3/carry\<12\>
*603 polynomialCore/add_0_root_add_0_root_add_56_3/carry\<11\>
*604 polynomialCore/add_0_root_add_0_root_add_56_3/carry\<10\>
*605 polynomialCore/add_0_root_add_0_root_add_56_3/carry\<9\>
*606 polynomialCore/add_0_root_add_0_root_add_56_3/carry\<8\>
*607 polynomialCore/add_0_root_add_0_root_add_56_3/carry\<7\>
*608 polynomialCore/add_0_root_add_0_root_add_56_3/carry\<6\>
*609 polynomialCore/add_0_root_add_0_root_add_56_3/carry\<5\>
*610 polynomialCore/add_0_root_add_0_root_add_56_3/carry\<4\>
*611 polynomialCore/add_0_root_add_0_root_add_56_3/carry\<3\>
*612 polynomialCore/add_0_root_add_0_root_add_56_3/carry\<2\>
*613 polynomialCore/add_0_root_add_0_root_add_56_3/n1
*614 polynomialCore/add_0_root_add_0_root_add_56_3/n3
*615 polynomialCore/add_0_root_add_0_root_add_56_3/n4
*616 FE_OFC33_valid_out_top
*617 FE_OFC32_valid_out_top
*618 FE_OFC31_y_top_1
*619 FE_OFC30_y_top_1
*620 FE_OFC29_y_top_2
*621 FE_OFC28_y_top_2
*622 FE_OFC27_y_top_3
*623 FE_OFC26_y_top_3
*624 FE_OFC25_y_top_4
*625 FE_OFC24_y_top_4
*626 FE_OFC23_y_top_7
*627 FE_OFC22_y_top_7
*628 FE_OFC21_y_top_8
*629 FE_OFC20_y_top_8
*630 FE_OFC19_y_top_9
*631 FE_OFC18_y_top_9
*632 FE_OFC17_y_top_10
*633 FE_OFC16_y_top_10
*634 FE_OFC15_y_top_11
*635 FE_OFC14_y_top_11
*636 FE_OFC13_y_top_12
*637 FE_OFC12_y_top_12
*638 FE_OFC11_y_top_13
*639 FE_OFC10_y_top_13
*640 FE_OFC9_y_top_14
*641 FE_OFC8_y_top_14
*642 FE_OFC7_y_top_15
*643 FE_OFC6_y_top_15
*644 FE_OFC5_y_top_16
*645 FE_OFC4_y_top_16
*646 FE_OFC3_y_top_17
*647 FE_OFC2_y_top_17
*648 FE_OFC1_y_top_18
*649 FE_OFC0_y_top_18
*650 inpX_5
*651 inpX_4
*652 inpX_3
*653 inpX_2
*654 inpX_1
*655 inpX_0
*656 outpY_23
*657 outpY_22
*658 outpY_21
*659 outpY_20
*660 outpY_19
*661 outpY_18
*662 outpY_17
*663 outpY_16
*664 outpY_15
*665 outpY_14
*666 outpY_13
*667 outpY_12
*668 outpY_11
*669 outpY_10
*670 outpY_9
*671 outpY_8
*672 outpY_7
*673 outpY_6
*674 outpY_5
*675 outpY_4
*676 outpY_3
*677 outpY_2
*678 outpY_1
*679 outpY_0
*680 padClock
*681 padValidIn
*682 padReset
*683 padValidOut
*684 polynomialCore/FE_OFC54_N69
*685 polynomialCore/FE_OFC53_N61
*686 polynomialCore/FE_OFC52_N60
*687 polynomialCore/FE_OFC51_N60
*688 polynomialCore/FE_OFC50_N62
*689 polynomialCore/FE_OFC49_N62
*690 polynomialCore/FE_OFC48_N68
*691 polynomialCore/FE_OFC47_N68
*692 polynomialCore/FE_OFC46_N67
*693 polynomialCore/FE_OFC45_N67
*694 polynomialCore/FE_OFC41_N75
*695 polynomialCore/FE_OFC40_N75
*696 polynomialCore/FE_OFC39_N74
*697 polynomialCore/FE_OFC38_N74
*698 polynomialCore/FE_OFC37_y1_2
*699 polynomialCore/FE_OFC36_y1_2
*700 polynomialCore/FE_OFC35_y1_3
*701 polynomialCore/FE_OFC34_y1_3
*702 polynomialCore/FE_DBTC1_N2
*703 polynomialCore/FE_DBTC0_N3
*704 polynomialCore/mult_54/S2_2_2
*705 polynomialCore/mult_54/S2_3_3
*706 polynomialCore/mult_54/S3_4_4
*707 polynomialCore/mult_54/S1_2_0
*708 polynomialCore/mult_54/S5_4
*709 polynomialCore/mult_54/S2_2_1
*710 polynomialCore/mult_54/S2_4_3
*711 polynomialCore/mult_54/S2_4_2
*712 polynomialCore/mult_54/S2_4_1
*713 polynomialCore/mult_54/S2_3_2
*714 polynomialCore/mult_54/S3_3_4
*715 polynomialCore/mult_54/S3_2_4
*716 polynomialCore/mult_54/S2_2_3
*717 polynomialCore/mult_54/S1_3_0
*718 polynomialCore/mult_54/S2_3_1
*719 polynomialCore/mult_54/S4_1
*720 polynomialCore/mult_54/S4_3
*721 polynomialCore/mult_54/S4_2
*722 polynomialCore/mult_54/S4_0
*723 polynomialCore/mult_54/S1_4_0
*724 polynomialCore/mult_54/U2
*725 polynomialCore/mult_54/U3
*726 polynomialCore/mult_54/U4
*727 polynomialCore/mult_54/U5
*728 polynomialCore/mult_54/U6
*729 polynomialCore/mult_54/U7
*730 polynomialCore/mult_54/U8
*731 polynomialCore/mult_54/U9
*732 polynomialCore/mult_54/U10
*733 polynomialCore/mult_54/U11
*734 polynomialCore/mult_54/U12
*735 polynomialCore/mult_54/U13
*736 polynomialCore/mult_54/U14
*737 polynomialCore/mult_54/U15
*738 polynomialCore/mult_54/U16
*739 polynomialCore/mult_54/U17
*740 polynomialCore/mult_54/U18
*741 polynomialCore/mult_54/U19
*742 polynomialCore/mult_54/U20
*743 polynomialCore/mult_54/U21
*744 polynomialCore/mult_54/U22
*745 polynomialCore/mult_54/U23
*746 polynomialCore/mult_54/U24
*747 polynomialCore/mult_54/U25
*748 polynomialCore/mult_54/U26
*749 polynomialCore/mult_54/U27
*750 polynomialCore/mult_54/U28
*751 polynomialCore/mult_54/U29
*752 polynomialCore/mult_54/U30
*753 polynomialCore/mult_54/U31
*754 polynomialCore/mult_54/U32
*755 polynomialCore/mult_54/U33
*756 polynomialCore/mult_54/U35
*757 polynomialCore/mult_54/U36
*758 polynomialCore/mult_54/U37
*759 polynomialCore/mult_54/U38
*760 polynomialCore/mult_54/U39
*761 polynomialCore/mult_54/U40
*762 polynomialCore/mult_54/U41
*763 polynomialCore/mult_54/U42
*764 polynomialCore/mult_54/U43
*765 polynomialCore/mult_54/U44
*766 polynomialCore/mult_54/U45
*767 polynomialCore/mult_54/U46
*768 polynomialCore/mult_54/U47
*769 polynomialCore/mult_54/U48
*770 polynomialCore/mult_54/U49
*771 polynomialCore/mult_54/U50
*772 polynomialCore/mult_54/U51
*773 polynomialCore/mult_54/U52
*774 polynomialCore/mult_54/U53
*775 polynomialCore/mult_54/U54
*776 polynomialCore/mult_54/U55
*777 polynomialCore/mult_54/U56
*778 polynomialCore/mult_54/U57
*779 polynomialCore/mult_54/U58
*780 polynomialCore/mult_54/U60
*781 polynomialCore/mult_54/U63
*782 polynomialCore/mult_54/U64
*783 polynomialCore/mult_54/U65
*784 polynomialCore/mult_54/U66
*785 polynomialCore/mult_54/U67
*786 polynomialCore/mult_54/U68
*787 polynomialCore/mult_54/U69
*788 polynomialCore/mult_54/U70
*789 polynomialCore/mult_54/U71
*790 polynomialCore/mult_54/U72
*791 polynomialCore/mult_54/U73
*792 polynomialCore/mult_54/U74
*793 polynomialCore/mult_54/U75
*794 polynomialCore/mult_54/U76
*795 polynomialCore/mult_54/U77
*796 polynomialCore/mult_54/U78
*797 polynomialCore/mult_54/U79
*798 polynomialCore/mult_54/U80
*799 polynomialCore/mult_54/U81
*800 polynomialCore/mult_54/U82
*801 polynomialCore/mult_54/U83
*802 polynomialCore/mult_54/U84
*803 polynomialCore/mult_54/U85
*804 polynomialCore/mult_54/U86
*805 polynomialCore/mult_54/U87
*806 polynomialCore/mult_54/U88
*807 polynomialCore/mult_55/FE_OFC44_n39
*808 polynomialCore/mult_55/FE_OFC43_n39
*809 polynomialCore/mult_55/FE_OFC42_n38
*810 polynomialCore/mult_55/S2_9_3
*811 polynomialCore/mult_55/S2_9_2
*812 polynomialCore/mult_55/S2_6_2
*813 polynomialCore/mult_55/S2_6_3
*814 polynomialCore/mult_55/S2_5_2
*815 polynomialCore/mult_55/S2_5_3
*816 polynomialCore/mult_55/S2_4_2
*817 polynomialCore/mult_55/S2_4_3
*818 polynomialCore/mult_55/S2_3_2
*819 polynomialCore/mult_55/S2_3_3
*820 polynomialCore/mult_55/S2_2_2
*821 polynomialCore/mult_55/S2_10_3
*822 polynomialCore/mult_55/S2_10_2
*823 polynomialCore/mult_55/S2_10_1
*824 polynomialCore/mult_55/S2_8_3
*825 polynomialCore/mult_55/S3_10_4
*826 polynomialCore/mult_55/S3_6_4
*827 polynomialCore/mult_55/S3_5_4
*828 polynomialCore/mult_55/S3_4_4
*829 polynomialCore/mult_55/S3_3_4
*830 polynomialCore/mult_55/S3_9_4
*831 polynomialCore/mult_55/S3_2_4
*832 polynomialCore/mult_55/S2_7_3
*833 polynomialCore/mult_55/S3_7_4
*834 polynomialCore/mult_55/S3_8_4
*835 polynomialCore/mult_55/S1_2_0
*836 polynomialCore/mult_55/S2_2_1
*837 polynomialCore/mult_55/S2_2_3
*838 polynomialCore/mult_55/S1_3_0
*839 polynomialCore/mult_55/S2_3_1
*840 polynomialCore/mult_55/S1_10_0
*841 polynomialCore/mult_55/S1_9_0
*842 polynomialCore/mult_55/S2_9_1
*843 polynomialCore/mult_55/S1_8_0
*844 polynomialCore/mult_55/S2_8_1
*845 polynomialCore/mult_55/S2_8_2
*846 polynomialCore/mult_55/S1_7_0
*847 polynomialCore/mult_55/S2_7_1
*848 polynomialCore/mult_55/S2_7_2
*849 polynomialCore/mult_55/S1_6_0
*850 polynomialCore/mult_55/S2_6_1
*851 polynomialCore/mult_55/S1_5_0
*852 polynomialCore/mult_55/S2_5_1
*853 polynomialCore/mult_55/S1_4_0
*854 polynomialCore/mult_55/S2_4_1
*855 polynomialCore/mult_55/S4_0
*856 polynomialCore/mult_55/S4_1
*857 polynomialCore/mult_55/S5_4
*858 polynomialCore/mult_55/S4_3
*859 polynomialCore/mult_55/S4_2
*860 polynomialCore/mult_55/U2
*861 polynomialCore/mult_55/U3
*862 polynomialCore/mult_55/U4
*863 polynomialCore/mult_55/U5
*864 polynomialCore/mult_55/U6
*865 polynomialCore/mult_55/U7
*866 polynomialCore/mult_55/U8
*867 polynomialCore/mult_55/U10